The # of dimensions = 16
Dimension[Time] = 24
Dimension[DateStrLen] = 19
Dimension[south_north] = 82
Dimension[west_east] = 102
Dimension[bottom_top] = 35
Dimension[bottom_top_stag] = 36
Dimension[west_east_stag] = 103
Dimension[south_north_stag] = 83
Dimension[land_cat_stag] = 40
Dimension[soil_layers_stag] = 2
Dimension[ncl10] = 24
Dimension[ncl11] = 82
Dimension[ncl12] = 102
Dimension[ncl13] = 24
Dimension[ncl14] = 82
Dimension[ncl15] = 102
The # of attributes = 127
Global_Attribute[TITLE] =  OUTPUT FROM WRF V3.8 MODEL
Global_Attribute[START_DATE] = 2011-06-30_00:00:00
Global_Attribute[SIMULATION_START_DATE] = 2010-12-22_00:00:00
Global_Attribute[WEST-EAST_GRID_DIMENSION] = 103
Global_Attribute[SOUTH-NORTH_GRID_DIMENSION] = 83
Global_Attribute[BOTTOM-TOP_GRID_DIMENSION] = 36
Global_Attribute[DX] = 12000.0
Global_Attribute[DY] = 12000.0
Global_Attribute[SKEBS_ON] = 0
Global_Attribute[SPEC_BDY_FINAL_MU] = 1
Global_Attribute[USE_Q_DIABATIC] = 0
Global_Attribute[GRIDTYPE] = C
Global_Attribute[DIFF_OPT] = 1
Global_Attribute[KM_OPT] = 4
Global_Attribute[DAMP_OPT] = 3
Global_Attribute[DAMPCOEF] = 0.05
Global_Attribute[KHDIF] = 0.0
Global_Attribute[KVDIF] = 0.0
Global_Attribute[MP_PHYSICS] = 10
Global_Attribute[RA_LW_PHYSICS] = 4
Global_Attribute[RA_SW_PHYSICS] = 4
Global_Attribute[SF_SFCLAY_PHYSICS] = 7
Global_Attribute[SF_SURFACE_PHYSICS] = 7
Global_Attribute[BL_PBL_PHYSICS] = 7
Global_Attribute[CU_PHYSICS] = 1
Global_Attribute[SF_LAKE_PHYSICS] = 0
Global_Attribute[SURFACE_INPUT_SOURCE] = 1
Global_Attribute[SST_UPDATE] = 1
Global_Attribute[GRID_FDDA] = 1
Global_Attribute[GFDDA_INTERVAL_M] = 180
Global_Attribute[GFDDA_END_H] = 9001
Global_Attribute[GRID_SFDDA] = 1
Global_Attribute[SGFDDA_INTERVAL_M] = 180
Global_Attribute[SGFDDA_END_H] = 9001
Global_Attribute[HYPSOMETRIC_OPT] = 2
Global_Attribute[USE_THETA_M] = 0
Global_Attribute[SF_URBAN_PHYSICS] = 0
Global_Attribute[SHCU_PHYSICS] = 0
Global_Attribute[MFSHCONV] = 0
Global_Attribute[FEEDBACK] = 1
Global_Attribute[SMOOTH_OPTION] = 0
Global_Attribute[SWRAD_SCAT] = 1.0
Global_Attribute[W_DAMPING] = 1
Global_Attribute[DT] = 60.0
Global_Attribute[RADT] = 20.0
Global_Attribute[BLDT] = 0.0
Global_Attribute[CUDT] = 10.0
Global_Attribute[AER_OPT] = 0
Global_Attribute[SWINT_OPT] = 0
Global_Attribute[AER_TYPE] = 1
Global_Attribute[AER_AOD550_OPT] = 1
Global_Attribute[AER_ANGEXP_OPT] = 1
Global_Attribute[AER_SSA_OPT] = 1
Global_Attribute[AER_ASY_OPT] = 1
Global_Attribute[AER_AOD550_VAL] = 0.12
Global_Attribute[AER_ANGEXP_VAL] = 1.3
Global_Attribute[AER_SSA_VAL] = 1e-45
Global_Attribute[AER_ASY_VAL] = 1e-45
Global_Attribute[MOIST_ADV_OPT] = 2
Global_Attribute[SCALAR_ADV_OPT] = 2
Global_Attribute[TKE_ADV_OPT] = 2
Global_Attribute[DIFF_6TH_OPT] = 2
Global_Attribute[DIFF_6TH_FACTOR] = 0.12
Global_Attribute[FGDT] = 0.0
Global_Attribute[GUV] = 1e-04
Global_Attribute[GT] = 1e-04
Global_Attribute[GQ] = 1e-05
Global_Attribute[IF_RAMPING] = 0
Global_Attribute[DTRAMP_MIN] = 60.0
Global_Attribute[GUV_SFC] = 0.0
Global_Attribute[GT_SFC] = 0.0
Global_Attribute[GQ_SFC] = 0.0
Global_Attribute[RINBLW] = 250.0
Global_Attribute[OBS_NUDGE_OPT] = 0
Global_Attribute[BUCKET_MM] = -1.0
Global_Attribute[BUCKET_J] = -1.0
Global_Attribute[PREC_ACC_DT] = 60.0
Global_Attribute[SF_OCEAN_PHYSICS] = 0
Global_Attribute[ISFTCFLX] = 0
Global_Attribute[ISHALLOW] = 0
Global_Attribute[ISFFLX] = 1
Global_Attribute[ICLOUD] = 1
Global_Attribute[ICLOUD_CU] = 2
Global_Attribute[TRACER_PBLMIX] = 1
Global_Attribute[SCALAR_PBLMIX] = 0
Global_Attribute[YSU_TOPDOWN_PBLMIX] = 0
Global_Attribute[GRAV_SETTLING] = 0
Global_Attribute[DFI_OPT] = 0
Global_Attribute[SIMULATION_INITIALIZATION_TYPE] = REAL-DATA CASE
Global_Attribute[WEST-EAST_PATCH_START_UNSTAG] = 1
Global_Attribute[WEST-EAST_PATCH_END_UNSTAG] = 102
Global_Attribute[WEST-EAST_PATCH_START_STAG] = 1
Global_Attribute[WEST-EAST_PATCH_END_STAG] = 103
Global_Attribute[SOUTH-NORTH_PATCH_START_UNSTAG] = 1
Global_Attribute[SOUTH-NORTH_PATCH_END_UNSTAG] = 82
Global_Attribute[SOUTH-NORTH_PATCH_START_STAG] = 1
Global_Attribute[SOUTH-NORTH_PATCH_END_STAG] = 83
Global_Attribute[BOTTOM-TOP_PATCH_START_UNSTAG] = 1
Global_Attribute[BOTTOM-TOP_PATCH_END_UNSTAG] = 35
Global_Attribute[BOTTOM-TOP_PATCH_START_STAG] = 1
Global_Attribute[BOTTOM-TOP_PATCH_END_STAG] = 36
Global_Attribute[GRID_ID] = 1
Global_Attribute[PARENT_ID] = 0
Global_Attribute[I_PARENT_START] = 0
Global_Attribute[J_PARENT_START] = 0
Global_Attribute[PARENT_GRID_RATIO] = 1
Global_Attribute[CEN_LAT] = 33.5334
Global_Attribute[CEN_LON] = -81.8963
Global_Attribute[TRUELAT1] = 33.0
Global_Attribute[TRUELAT2] = 45.0
Global_Attribute[MOAD_CEN_LAT] = 40.573566
Global_Attribute[STAND_LON] = -97.0
Global_Attribute[POLE_LAT] = 90.0
Global_Attribute[POLE_LON] = 0.0
Global_Attribute[GMT] = 0.0
Global_Attribute[JULYR] = 2011
Global_Attribute[JULDAY] = 181
Global_Attribute[MAP_PROJ] = 1
Global_Attribute[MAP_PROJ_CHAR] = Lambert Conformal
Global_Attribute[MMINLU] = NLCD40
Global_Attribute[NUM_LAND_CAT] = 40
Global_Attribute[ISWATER] = 17
Global_Attribute[ISLAKE] = -1
Global_Attribute[ISICE] = 15
Global_Attribute[ISURBAN] = 13
Global_Attribute[ISOILWATER] = 14
Global_Attribute[history] = Created with subset_wrfout_nco.csh
The # of variables = 70
---------- variable Times ----------
shape = (24, 19)
dimension[Time] = 24
dimension[DateStrLen] = 19
number of attributes = 0
---------- variable XLAT ----------
shape = (24, 82, 102)
dimension[Time] = 24
dimension[south_north] = 82
dimension[west_east] = 102
number of attributes = 6
attribute[FieldType] = 104
attribute[MemoryOrder] = XY 
attribute[description] = LATITUDE, SOUTH IS NEGATIVE
attribute[units] = degree_north
attribute[stagger] = 
attribute[coordinates] = XLONG XLAT
---------- variable XLONG ----------
shape = (24, 82, 102)
dimension[Time] = 24
dimension[south_north] = 82
dimension[west_east] = 102
number of attributes = 6
attribute[FieldType] = 104
attribute[MemoryOrder] = XY 
attribute[description] = LONGITUDE, WEST IS NEGATIVE
attribute[units] = degree_east
attribute[stagger] = 
attribute[coordinates] = XLONG XLAT
---------- variable LU_INDEX ----------
shape = (24, 82, 102)
dimension[Time] = 24
dimension[south_north] = 82
dimension[west_east] = 102
number of attributes = 6
attribute[FieldType] = 104
attribute[MemoryOrder] = XY 
attribute[description] = LAND USE CATEGORY
attribute[units] = 
attribute[stagger] = 
attribute[coordinates] = XLONG XLAT XTIME
---------- variable ZNU ----------
shape = (24, 35)
dimension[Time] = 24
dimension[bottom_top] = 35
number of attributes = 5
attribute[FieldType] = 104
attribute[MemoryOrder] = Z  
attribute[description] = eta values on half (mass) levels
attribute[units] = 
attribute[stagger] = 
---------- variable ZNW ----------
shape = (24, 36)
dimension[Time] = 24
dimension[bottom_top_stag] = 36
number of attributes = 5
attribute[FieldType] = 104
attribute[MemoryOrder] = Z  
attribute[description] = eta values on full (w) levels
attribute[units] = 
attribute[stagger] = Z
---------- variable U ----------
shape = (24, 35, 82, 103)
dimension[Time] = 24
dimension[bottom_top] = 35
dimension[south_north] = 82
dimension[west_east_stag] = 103
number of attributes = 6
attribute[FieldType] = 104
attribute[MemoryOrder] = XYZ
attribute[description] = x-wind component
attribute[units] = m s-1
attribute[stagger] = X
attribute[coordinates] = XLONG_U XLAT_U XTIME
---------- variable V ----------
shape = (24, 35, 83, 102)
dimension[Time] = 24
dimension[bottom_top] = 35
dimension[south_north_stag] = 83
dimension[west_east] = 102
number of attributes = 6
attribute[FieldType] = 104
attribute[MemoryOrder] = XYZ
attribute[description] = y-wind component
attribute[units] = m s-1
attribute[stagger] = Y
attribute[coordinates] = XLONG_V XLAT_V XTIME
---------- variable W ----------
shape = (24, 36, 82, 102)
dimension[Time] = 24
dimension[bottom_top_stag] = 36
dimension[south_north] = 82
dimension[west_east] = 102
number of attributes = 6
attribute[FieldType] = 104
attribute[MemoryOrder] = XYZ
attribute[description] = z-wind component
attribute[units] = m s-1
attribute[stagger] = Z
attribute[coordinates] = XLONG XLAT XTIME
---------- variable PH ----------
shape = (24, 36, 82, 102)
dimension[Time] = 24
dimension[bottom_top_stag] = 36
dimension[south_north] = 82
dimension[west_east] = 102
number of attributes = 6
attribute[FieldType] = 104
attribute[MemoryOrder] = XYZ
attribute[description] = perturbation geopotential
attribute[units] = m2 s-2
attribute[stagger] = Z
attribute[coordinates] = XLONG XLAT XTIME
---------- variable PHB ----------
shape = (24, 36, 82, 102)
dimension[Time] = 24
dimension[bottom_top_stag] = 36
dimension[south_north] = 82
dimension[west_east] = 102
number of attributes = 6
attribute[FieldType] = 104
attribute[MemoryOrder] = XYZ
attribute[description] = base-state geopotential
attribute[units] = m2 s-2
attribute[stagger] = Z
attribute[coordinates] = XLONG XLAT XTIME
---------- variable T ----------
shape = (24, 35, 82, 102)
dimension[Time] = 24
dimension[bottom_top] = 35
dimension[south_north] = 82
dimension[west_east] = 102
number of attributes = 6
attribute[FieldType] = 104
attribute[MemoryOrder] = XYZ
attribute[description] = perturbation potential temperature (theta-t0)
attribute[units] = K
attribute[stagger] = 
attribute[coordinates] = XLONG XLAT XTIME
---------- variable MU ----------
shape = (24, 82, 102)
dimension[Time] = 24
dimension[south_north] = 82
dimension[west_east] = 102
number of attributes = 6
attribute[FieldType] = 104
attribute[MemoryOrder] = XY 
attribute[description] = perturbation dry air mass in column
attribute[units] = Pa
attribute[stagger] = 
attribute[coordinates] = XLONG XLAT XTIME
---------- variable MUB ----------
shape = (24, 82, 102)
dimension[Time] = 24
dimension[south_north] = 82
dimension[west_east] = 102
number of attributes = 6
attribute[FieldType] = 104
attribute[MemoryOrder] = XY 
attribute[description] = base state dry air mass in column
attribute[units] = Pa
attribute[stagger] = 
attribute[coordinates] = XLONG XLAT XTIME
---------- variable P ----------
shape = (24, 35, 82, 102)
dimension[Time] = 24
dimension[bottom_top] = 35
dimension[south_north] = 82
dimension[west_east] = 102
number of attributes = 6
attribute[FieldType] = 104
attribute[MemoryOrder] = XYZ
attribute[description] = perturbation pressure
attribute[units] = Pa
attribute[stagger] = 
attribute[coordinates] = XLONG XLAT XTIME
---------- variable PB ----------
shape = (24, 35, 82, 102)
dimension[Time] = 24
dimension[bottom_top] = 35
dimension[south_north] = 82
dimension[west_east] = 102
number of attributes = 6
attribute[FieldType] = 104
attribute[MemoryOrder] = XYZ
attribute[description] = BASE STATE PRESSURE
attribute[units] = Pa
attribute[stagger] = 
attribute[coordinates] = XLONG XLAT XTIME
---------- variable Q2 ----------
shape = (24, 82, 102)
dimension[Time] = 24
dimension[south_north] = 82
dimension[west_east] = 102
number of attributes = 6
attribute[FieldType] = 104
attribute[MemoryOrder] = XY 
attribute[description] = QV at 2 M
attribute[units] = kg kg-1
attribute[stagger] = 
attribute[coordinates] = XLONG XLAT XTIME
---------- variable T2 ----------
shape = (24, 82, 102)
dimension[Time] = 24
dimension[south_north] = 82
dimension[west_east] = 102
number of attributes = 6
attribute[FieldType] = 104
attribute[MemoryOrder] = XY 
attribute[description] = TEMP at 2 M
attribute[units] = K
attribute[stagger] = 
attribute[coordinates] = XLONG XLAT XTIME
---------- variable PSFC ----------
shape = (24, 82, 102)
dimension[Time] = 24
dimension[south_north] = 82
dimension[west_east] = 102
number of attributes = 6
attribute[FieldType] = 104
attribute[MemoryOrder] = XY 
attribute[description] = SFC PRESSURE
attribute[units] = Pa
attribute[stagger] = 
attribute[coordinates] = XLONG XLAT XTIME
---------- variable U10 ----------
shape = (24, 82, 102)
dimension[Time] = 24
dimension[south_north] = 82
dimension[west_east] = 102
number of attributes = 6
attribute[FieldType] = 104
attribute[MemoryOrder] = XY 
attribute[description] = U at 10 M
attribute[units] = m s-1
attribute[stagger] = 
attribute[coordinates] = XLONG XLAT XTIME
---------- variable V10 ----------
shape = (24, 82, 102)
dimension[Time] = 24
dimension[south_north] = 82
dimension[west_east] = 102
number of attributes = 6
attribute[FieldType] = 104
attribute[MemoryOrder] = XY 
attribute[description] = V at 10 M
attribute[units] = m s-1
attribute[stagger] = 
attribute[coordinates] = XLONG XLAT XTIME
---------- variable QVAPOR ----------
shape = (24, 35, 82, 102)
dimension[Time] = 24
dimension[bottom_top] = 35
dimension[south_north] = 82
dimension[west_east] = 102
number of attributes = 6
attribute[FieldType] = 104
attribute[MemoryOrder] = XYZ
attribute[description] = Water vapor mixing ratio
attribute[units] = kg kg-1
attribute[stagger] = 
attribute[coordinates] = XLONG XLAT XTIME
---------- variable QCLOUD ----------
shape = (24, 35, 82, 102)
dimension[Time] = 24
dimension[bottom_top] = 35
dimension[south_north] = 82
dimension[west_east] = 102
number of attributes = 6
attribute[FieldType] = 104
attribute[MemoryOrder] = XYZ
attribute[description] = Cloud water mixing ratio
attribute[units] = kg kg-1
attribute[stagger] = 
attribute[coordinates] = XLONG XLAT XTIME
---------- variable QRAIN ----------
shape = (24, 35, 82, 102)
dimension[Time] = 24
dimension[bottom_top] = 35
dimension[south_north] = 82
dimension[west_east] = 102
number of attributes = 6
attribute[FieldType] = 104
attribute[MemoryOrder] = XYZ
attribute[description] = Rain water mixing ratio
attribute[units] = kg kg-1
attribute[stagger] = 
attribute[coordinates] = XLONG XLAT XTIME
---------- variable QICE ----------
shape = (24, 35, 82, 102)
dimension[Time] = 24
dimension[bottom_top] = 35
dimension[south_north] = 82
dimension[west_east] = 102
number of attributes = 6
attribute[FieldType] = 104
attribute[MemoryOrder] = XYZ
attribute[description] = Ice mixing ratio
attribute[units] = kg kg-1
attribute[stagger] = 
attribute[coordinates] = XLONG XLAT XTIME
---------- variable QSNOW ----------
shape = (24, 35, 82, 102)
dimension[Time] = 24
dimension[bottom_top] = 35
dimension[south_north] = 82
dimension[west_east] = 102
number of attributes = 6
attribute[FieldType] = 104
attribute[MemoryOrder] = XYZ
attribute[description] = Snow mixing ratio
attribute[units] = kg kg-1
attribute[stagger] = 
attribute[coordinates] = XLONG XLAT XTIME
---------- variable QGRAUP ----------
shape = (24, 35, 82, 102)
dimension[Time] = 24
dimension[bottom_top] = 35
dimension[south_north] = 82
dimension[west_east] = 102
number of attributes = 6
attribute[FieldType] = 104
attribute[MemoryOrder] = XYZ
attribute[description] = Graupel mixing ratio
attribute[units] = kg kg-1
attribute[stagger] = 
attribute[coordinates] = XLONG XLAT XTIME
---------- variable LANDUSEF ----------
shape = (24, 40, 82, 102)
dimension[Time] = 24
dimension[land_cat_stag] = 40
dimension[south_north] = 82
dimension[west_east] = 102
number of attributes = 6
attribute[FieldType] = 104
attribute[MemoryOrder] = XYZ
attribute[description] = LANDUSE FRACTION BY CATEGORY
attribute[units] = 
attribute[stagger] = Z
attribute[coordinates] = XLONG XLAT XTIME
---------- variable TSLB ----------
shape = (24, 2, 82, 102)
dimension[Time] = 24
dimension[soil_layers_stag] = 2
dimension[south_north] = 82
dimension[west_east] = 102
number of attributes = 6
attribute[FieldType] = 104
attribute[MemoryOrder] = XYZ
attribute[description] = SOIL TEMPERATURE
attribute[units] = K
attribute[stagger] = Z
attribute[coordinates] = XLONG XLAT XTIME
---------- variable SMOIS ----------
shape = (24, 2, 82, 102)
dimension[Time] = 24
dimension[soil_layers_stag] = 2
dimension[south_north] = 82
dimension[west_east] = 102
number of attributes = 6
attribute[FieldType] = 104
attribute[MemoryOrder] = XYZ
attribute[description] = SOIL MOISTURE
attribute[units] = m3 m-3
attribute[stagger] = Z
attribute[coordinates] = XLONG XLAT XTIME
---------- variable SEAICE ----------
shape = (24, 82, 102)
dimension[Time] = 24
dimension[south_north] = 82
dimension[west_east] = 102
number of attributes = 6
attribute[FieldType] = 104
attribute[MemoryOrder] = XY 
attribute[description] = SEA ICE FLAG
attribute[units] = 
attribute[stagger] = 
attribute[coordinates] = XLONG XLAT XTIME
---------- variable ISLTYP ----------
shape = (24, 82, 102)
dimension[Time] = 24
dimension[south_north] = 82
dimension[west_east] = 102
number of attributes = 6
attribute[FieldType] = 106
attribute[MemoryOrder] = XY 
attribute[description] = DOMINANT SOIL CATEGORY
attribute[units] = 
attribute[stagger] = 
attribute[coordinates] = XLONG XLAT XTIME
---------- variable VEGFRA ----------
shape = (24, 82, 102)
dimension[Time] = 24
dimension[south_north] = 82
dimension[west_east] = 102
number of attributes = 6
attribute[FieldType] = 104
attribute[MemoryOrder] = XY 
attribute[description] = VEGETATION FRACTION
attribute[units] = 
attribute[stagger] = 
attribute[coordinates] = XLONG XLAT XTIME
---------- variable CANWAT ----------
shape = (24, 82, 102)
dimension[Time] = 24
dimension[south_north] = 82
dimension[west_east] = 102
number of attributes = 6
attribute[FieldType] = 104
attribute[MemoryOrder] = XY 
attribute[description] = CANOPY WATER
attribute[units] = kg m-2
attribute[stagger] = 
attribute[coordinates] = XLONG XLAT XTIME
---------- variable RA ----------
shape = (24, 82, 102)
dimension[Time] = 24
dimension[south_north] = 82
dimension[west_east] = 102
number of attributes = 6
attribute[FieldType] = 104
attribute[MemoryOrder] = XY 
attribute[description] = AERODYNAMIC RESISTANCE
attribute[units] = s m-1
attribute[stagger] = 
attribute[coordinates] = XLONG XLAT XTIME
---------- variable RS ----------
shape = (24, 82, 102)
dimension[Time] = 24
dimension[south_north] = 82
dimension[west_east] = 102
number of attributes = 6
attribute[FieldType] = 104
attribute[MemoryOrder] = XY 
attribute[description] = SURFACE RESISTANCE
attribute[units] = s m-1
attribute[stagger] = 
attribute[coordinates] = XLONG XLAT XTIME
---------- variable LAI ----------
shape = (24, 82, 102)
dimension[Time] = 24
dimension[south_north] = 82
dimension[west_east] = 102
number of attributes = 6
attribute[FieldType] = 104
attribute[MemoryOrder] = XY 
attribute[description] = LEAF AREA INDEX
attribute[units] = m-2/m-2
attribute[stagger] = 
attribute[coordinates] = XLONG XLAT XTIME
---------- variable VEGF_PX ----------
shape = (24, 82, 102)
dimension[Time] = 24
dimension[south_north] = 82
dimension[west_east] = 102
number of attributes = 6
attribute[FieldType] = 104
attribute[MemoryOrder] = XY 
attribute[description] = Vegetation Fraction for PX LSM
attribute[units] = area/area
attribute[stagger] = 
attribute[coordinates] = XLONG XLAT XTIME
---------- variable MAPFAC_M ----------
shape = (24, 82, 102)
dimension[Time] = 24
dimension[south_north] = 82
dimension[west_east] = 102
number of attributes = 6
attribute[FieldType] = 104
attribute[MemoryOrder] = XY 
attribute[description] = Map scale factor on mass grid
attribute[units] = 
attribute[stagger] = 
attribute[coordinates] = XLONG XLAT XTIME
---------- variable MAPFAC_U ----------
shape = (24, 82, 103)
dimension[Time] = 24
dimension[south_north] = 82
dimension[west_east_stag] = 103
number of attributes = 6
attribute[FieldType] = 104
attribute[MemoryOrder] = XY 
attribute[description] = Map scale factor on u-grid
attribute[units] = 
attribute[stagger] = X
attribute[coordinates] = XLONG_U XLAT_U XTIME
---------- variable MAPFAC_V ----------
shape = (24, 83, 102)
dimension[Time] = 24
dimension[south_north_stag] = 83
dimension[west_east] = 102
number of attributes = 6
attribute[FieldType] = 104
attribute[MemoryOrder] = XY 
attribute[description] = Map scale factor on v-grid
attribute[units] = 
attribute[stagger] = Y
attribute[coordinates] = XLONG_V XLAT_V XTIME
---------- variable HGT ----------
shape = (24, 82, 102)
dimension[Time] = 24
dimension[south_north] = 82
dimension[west_east] = 102
number of attributes = 6
attribute[FieldType] = 104
attribute[MemoryOrder] = XY 
attribute[description] = Terrain Height
attribute[units] = m
attribute[stagger] = 
attribute[coordinates] = XLONG XLAT XTIME
---------- variable TSK ----------
shape = (24, 82, 102)
dimension[Time] = 24
dimension[south_north] = 82
dimension[west_east] = 102
number of attributes = 6
attribute[FieldType] = 104
attribute[MemoryOrder] = XY 
attribute[description] = SURFACE SKIN TEMPERATURE
attribute[units] = K
attribute[stagger] = 
attribute[coordinates] = XLONG XLAT XTIME
---------- variable P_TOP ----------
shape = (24,)
dimension[Time] = 24
number of attributes = 5
attribute[FieldType] = 104
attribute[MemoryOrder] = 0  
attribute[description] = PRESSURE TOP OF THE MODEL
attribute[units] = Pa
attribute[stagger] = 
---------- variable RAINC ----------
shape = (24, 82, 102)
dimension[Time] = 24
dimension[south_north] = 82
dimension[west_east] = 102
number of attributes = 6
attribute[FieldType] = 104
attribute[MemoryOrder] = XY 
attribute[description] = ACCUMULATED TOTAL CUMULUS PRECIPITATION
attribute[units] = mm
attribute[stagger] = 
attribute[coordinates] = XLONG XLAT XTIME
---------- variable RAINNC ----------
shape = (24, 82, 102)
dimension[Time] = 24
dimension[south_north] = 82
dimension[west_east] = 102
number of attributes = 6
attribute[FieldType] = 104
attribute[MemoryOrder] = XY 
attribute[description] = ACCUMULATED TOTAL GRID SCALE PRECIPITATION
attribute[units] = mm
attribute[stagger] = 
attribute[coordinates] = XLONG XLAT XTIME
---------- variable CLDFRA ----------
shape = (24, 35, 82, 102)
dimension[Time] = 24
dimension[bottom_top] = 35
dimension[south_north] = 82
dimension[west_east] = 102
number of attributes = 6
attribute[FieldType] = 104
attribute[MemoryOrder] = XYZ
attribute[description] = CLOUD FRACTION
attribute[units] = 
attribute[stagger] = 
attribute[coordinates] = XLONG XLAT XTIME
---------- variable SWDOWN ----------
shape = (24, 82, 102)
dimension[Time] = 24
dimension[south_north] = 82
dimension[west_east] = 102
number of attributes = 6
attribute[FieldType] = 104
attribute[MemoryOrder] = XY 
attribute[description] = DOWNWARD SHORT WAVE FLUX AT GROUND SURFACE
attribute[units] = W m-2
attribute[stagger] = 
attribute[coordinates] = XLONG XLAT XTIME
---------- variable GLW ----------
shape = (24, 82, 102)
dimension[Time] = 24
dimension[south_north] = 82
dimension[west_east] = 102
number of attributes = 6
attribute[FieldType] = 104
attribute[MemoryOrder] = XY 
attribute[description] = DOWNWARD LONG WAVE FLUX AT GROUND SURFACE
attribute[units] = W m-2
attribute[stagger] = 
attribute[coordinates] = XLONG XLAT XTIME
---------- variable XLAT_U ----------
shape = (24, 82, 103)
dimension[Time] = 24
dimension[south_north] = 82
dimension[west_east_stag] = 103
number of attributes = 6
attribute[FieldType] = 104
attribute[MemoryOrder] = XY 
attribute[description] = LATITUDE, SOUTH IS NEGATIVE
attribute[units] = degree_north
attribute[stagger] = X
attribute[coordinates] = XLONG_U XLAT_U
---------- variable XLONG_U ----------
shape = (24, 82, 103)
dimension[Time] = 24
dimension[south_north] = 82
dimension[west_east_stag] = 103
number of attributes = 6
attribute[FieldType] = 104
attribute[MemoryOrder] = XY 
attribute[description] = LONGITUDE, WEST IS NEGATIVE
attribute[units] = degree_east
attribute[stagger] = X
attribute[coordinates] = XLONG_U XLAT_U
---------- variable XLAT_V ----------
shape = (24, 83, 102)
dimension[Time] = 24
dimension[south_north_stag] = 83
dimension[west_east] = 102
number of attributes = 6
attribute[FieldType] = 104
attribute[MemoryOrder] = XY 
attribute[description] = LATITUDE, SOUTH IS NEGATIVE
attribute[units] = degree_north
attribute[stagger] = Y
attribute[coordinates] = XLONG_V XLAT_V
---------- variable XLONG_V ----------
shape = (24, 83, 102)
dimension[Time] = 24
dimension[south_north_stag] = 83
dimension[west_east] = 102
number of attributes = 6
attribute[FieldType] = 104
attribute[MemoryOrder] = XY 
attribute[description] = LONGITUDE, WEST IS NEGATIVE
attribute[units] = degree_east
attribute[stagger] = Y
attribute[coordinates] = XLONG_V XLAT_V
---------- variable ALBEDO ----------
shape = (24, 82, 102)
dimension[Time] = 24
dimension[south_north] = 82
dimension[west_east] = 102
number of attributes = 6
attribute[FieldType] = 104
attribute[MemoryOrder] = XY 
attribute[description] = ALBEDO
attribute[units] = -
attribute[stagger] = 
attribute[coordinates] = XLONG XLAT XTIME
---------- variable ZNT ----------
shape = (24, 82, 102)
dimension[Time] = 24
dimension[south_north] = 82
dimension[west_east] = 102
number of attributes = 6
attribute[FieldType] = 104
attribute[MemoryOrder] = XY 
attribute[description] = TIME-VARYING ROUGHNESS LENGTH
attribute[units] = m
attribute[stagger] = 
attribute[coordinates] = XLONG XLAT XTIME
---------- variable UST ----------
shape = (24, 82, 102)
dimension[Time] = 24
dimension[south_north] = 82
dimension[west_east] = 102
number of attributes = 6
attribute[FieldType] = 104
attribute[MemoryOrder] = XY 
attribute[description] = U* IN SIMILARITY THEORY
attribute[units] = m s-1
attribute[stagger] = 
attribute[coordinates] = XLONG XLAT XTIME
---------- variable RMOL ----------
shape = (24, 82, 102)
dimension[Time] = 24
dimension[south_north] = 82
dimension[west_east] = 102
number of attributes = 6
attribute[FieldType] = 104
attribute[MemoryOrder] = XY 
attribute[description] = 1./Monin Ob. Length
attribute[units] = 
attribute[stagger] = 
attribute[coordinates] = XLONG XLAT XTIME
---------- variable PBLH ----------
shape = (24, 82, 102)
dimension[Time] = 24
dimension[south_north] = 82
dimension[west_east] = 102
number of attributes = 6
attribute[FieldType] = 104
attribute[MemoryOrder] = XY 
attribute[description] = PBL HEIGHT
attribute[units] = m
attribute[stagger] = 
attribute[coordinates] = XLONG XLAT XTIME
---------- variable HFX ----------
shape = (24, 82, 102)
dimension[Time] = 24
dimension[south_north] = 82
dimension[west_east] = 102
number of attributes = 6
attribute[FieldType] = 104
attribute[MemoryOrder] = XY 
attribute[description] = UPWARD HEAT FLUX AT THE SURFACE
attribute[units] = W m-2
attribute[stagger] = 
attribute[coordinates] = XLONG XLAT XTIME
---------- variable QFX ----------
shape = (24, 82, 102)
dimension[Time] = 24
dimension[south_north] = 82
dimension[west_east] = 102
number of attributes = 6
attribute[FieldType] = 104
attribute[MemoryOrder] = XY 
attribute[description] = UPWARD MOISTURE FLUX AT THE SURFACE
attribute[units] = kg m-2 s-1
attribute[stagger] = 
attribute[coordinates] = XLONG XLAT XTIME
---------- variable LH ----------
shape = (24, 82, 102)
dimension[Time] = 24
dimension[south_north] = 82
dimension[west_east] = 102
number of attributes = 6
attribute[FieldType] = 104
attribute[MemoryOrder] = XY 
attribute[description] = LATENT HEAT FLUX AT THE SURFACE
attribute[units] = W m-2
attribute[stagger] = 
attribute[coordinates] = XLONG XLAT XTIME
---------- variable SNOWC ----------
shape = (24, 82, 102)
dimension[Time] = 24
dimension[south_north] = 82
dimension[west_east] = 102
number of attributes = 6
attribute[FieldType] = 104
attribute[MemoryOrder] = XY 
attribute[description] = FLAG INDICATING SNOW COVERAGE (1 FOR SNOW COVER)
attribute[units] = 
attribute[stagger] = 
attribute[coordinates] = XLONG XLAT XTIME
---------- variable PREC_ACC_C ----------
shape = (24, 82, 102)
dimension[Time] = 24
dimension[south_north] = 82
dimension[west_east] = 102
number of attributes = 6
attribute[FieldType] = 104
attribute[MemoryOrder] = XY 
attribute[description] = ACCUMULATED CUMULUS PRECIPITATION OVER prec_acc_dt PERIODS OF TIME
attribute[units] = mm
attribute[stagger] = 
attribute[coordinates] = XLONG XLAT XTIME
---------- variable PREC_ACC_NC ----------
shape = (24, 82, 102)
dimension[Time] = 24
dimension[south_north] = 82
dimension[west_east] = 102
number of attributes = 6
attribute[FieldType] = 104
attribute[MemoryOrder] = XY 
attribute[description] = ACCUMULATED GRID SCALE  PRECIPITATION OVER prec_acc_dt PERIODS OF TIME
attribute[units] = mm
attribute[stagger] = 
attribute[coordinates] = XLONG XLAT XTIME
---------- variable LANDMASK ----------
shape = (24, 82, 102)
dimension[Time] = 24
dimension[south_north] = 82
dimension[west_east] = 102
number of attributes = 6
attribute[FieldType] = 104
attribute[MemoryOrder] = XY 
attribute[description] = LAND MASK (1 FOR LAND, 0 FOR WATER)
attribute[units] = 
attribute[stagger] = 
attribute[coordinates] = XLONG XLAT XTIME
---------- variable Q ----------
shape = (24, 82, 102)
dimension[Time] = 24
dimension[south_north] = 82
dimension[west_east] = 102
number of attributes = 3
attribute[units] = kg/m2
attribute[long_name] = Vertically Integrated Water Vapor
attribute[sum_op_ncl] = dim_sum_n over dimension(s): bottom_top
---------- variable UQ ----------
shape = (24, 82, 102)
dimension[Time] = 24
dimension[south_north] = 82
dimension[west_east] = 102
number of attributes = 3
attribute[units] = kg/m2/s
attribute[long_name] = eastern water vapor flux
attribute[sum_op_ncl] = dim_sum_n over dimension(s): bottom_top
---------- variable VQ ----------
shape = (24, 82, 102)
dimension[Time] = 24
dimension[south_north] = 82
dimension[west_east] = 102
number of attributes = 3
attribute[units] = kg/m2/s
attribute[long_name] = northern water vapor flux
attribute[sum_op_ncl] = dim_sum_n over dimension(s): bottom_top
---------- variable UQ_Q ----------
shape = (24, 82, 102)
dimension[Time] = 24
dimension[south_north] = 82
dimension[west_east] = 102
number of attributes = 0
---------- variable VQ_Q ----------
shape = (24, 82, 102)
dimension[Time] = 24
dimension[south_north] = 82
dimension[west_east] = 102
number of attributes = 0
